Circuit: * C:\Users\leona\Dropbox\My PC (LAPTOP-0GJU559A)\Documents\github\e-Power-PCBs\Charger_Shutdown\simulation\Draft1.asc

Direct Newton iteration for .op point succeeded.

Date: Sat Sep 25 19:49:07 2021
Total elapsed time: 0.064 seconds.

tnom = 27
temp = 27
method = modified trap
totiter = 2099
traniter = 2088
tranpoints = 1045
accept = 1045
rejected = 0
matrix size = 6
fillins = 0
solver = Normal
Matrix Compiler1: 164 bytes object code size  0.2/0.2/[0.1]
Matrix Compiler2: 454 bytes object code size  0.3/0.3/[0.1]

